models/ieee8500/library/feeder.glm
object regulator {
     name "FEEDER_REG";
     phases ABCN;
     from "node_regxfmr_HVMV_Sub_LSB";
     to "node_HVMV_Sub_LSB";
     configuration reg_config_1;
}

object regulator {
     name VREG2;
     phases ABCN;
     from "node_regxfmr_190-8593";
     to "node_190-8593";
     configuration reg_config_2;
}

object regulator {
     name VREG3;
     phases ABCN;
     from "node_regxfmr_190-8581";
     to "node_190-8581";
     configuration reg_config_3;
}

object regulator {
     name VREG4;
     phases ABCN;
     from "node_regxfmr_190-7361";
     to "node_190-7361";
     configuration reg_config_4;
}

// Capacitors

object capacitor {
     parent node_R42246;
     phases ABCN;
     pt_phase ABC;
     name CapBank0;
     phases_connected ABCN;
     control MANUAL;
     capacitor_A 0.4 MVAr;
     capacitor_B 0.4 MVAr;
     capacitor_C 0.4 MVAr;
     control_level INDIVIDUAL;
     switchA CLOSED;
     switchB CLOSED;
     switchC CLOSED;
     voltage_set_high 7740.0;
     voltage_set_low 7110.0;
     VAr_set_high 200.0 kVAr;
     VAr_set_low -300.0 kVAr;
     time_delay 300.0;
     lockout_time 1;
     remote_sense CAP_3;
     remote_sense_B node_L2823592_CAP;
     nominal_voltage 7199.558;
}

object capacitor {
     parent node_R42247;
     pt_phase ABC;
     phases ABCN;
     name CapBank1;
     phases_connected ABCN;
     control VARVOLT;
     capacitor_A 0.3 MVAr;
     capacitor_B 0.3 MVAr;
     capacitor_C 0.3 MVAr;
     control_level INDIVIDUAL;
     switchA CLOSED;
     switchB CLOSED;
     switchC CLOSED;
     voltage_set_high 7740.0;
     voltage_set_low 7110.0;
     VAr_set_high 150.0 kVAr;
     VAr_set_low -225.0 kVAr;
     time_delay 300.0;
     remote_sense CAP_2;
     lockout_time 1;
     remote_sense_B node_Q16483_CAP;
     nominal_voltage 7199.558;
}

object capacitor {
     parent node_R20185;
     pt_phase ABC;
     phases ABCN;
     name CapBank2;
     phases_connected ABCN;
     control VARVOLT;
     capacitor_A 0.3 MVAr;
     capacitor_B 0.3 MVAr;
     capacitor_C 0.3 MVAr;
     control_level INDIVIDUAL;
      switchA CLOSED;
     switchB CLOSED;
     switchC CLOSED;
     voltage_set_high 7740.0;
     voltage_set_low 7110.0;
     VAr_set_high 150.0 kVAr;
     VAr_set_low -225.0 kVAr;
     time_delay 300.0;
     lockout_time 1;
     remote_sense CAP_1;
     remote_sense_B node_Q16642_CAP;
     nominal_voltage 7199.558;
}

object capacitor {
     phases ABCN;
     parent node_R18242;
     name CapBank3;
     phases_connected ABCN;
     control MANUAL;
     capacitor_A 0.3 MVAr;
     capacitor_B 0.3 MVAr;
     capacitor_C 0.3 MVAr;
     control_level INDIVIDUAL;
     switchA CLOSED;
     switchB CLOSED;
     switchC CLOSED;
     nominal_voltage 12470.00;

}

object transformer {
     phases ABCN;
     name "HVMV_Sub";
     from "substation_meter";
     to "node_regxfmr_HVMV_Sub_LSB";
     configuration trans_config_1;
}

// Center-tap transformers

object transformer {
     configuration "T_config_1515A";
     name "T21396254A";
     from "node_L2804253";
     to "node_X2804253A";
     nominal_voltage 7199.558;
     phases AS;
}

object transformer {
     configuration "T_config_2525B";
     name "T5321859B";
     from "node_L3254213";
     to "node_X3254213B";
     nominal_voltage 7199.558;
     phases BS;
}

object transformer {
     configuration "T_config_2525B";
     name "T5391741B";
     from "node_L3216339";
     to "node_X3216339B";
     nominal_voltage 7199.558;
     phases BS;
}

object transformer {
     configuration "T_config_1515A";
     name "T5293672A";
     from "node_L2954355";
     to "node_X2954355A";
     nominal_voltage 7199.558;
     phases AS;
}

object transformer {
     configuration "T_config_1515C";
     name "T21474711C";
     from "node_L2861197";
     to "node_X2861197C";
     nominal_voltage 7199.558;
     phases CS;
}

object transformer {
     configuration "T_config_3838A";
     name "T5260488A";
     from "node_L2842379";
     to "node_X2842379A";
     nominal_voltage 7199.558;
     phases AS;
}

object transformer {
     configuration "T_config_1515B";
     name "T5391758B";
     from "node_L2841636";
     to "node_X2841636B";
     nominal_voltage 7199.558;
     phases BS;
}

object transformer {
     configuration "T_config_5050A";
     name "T228091193A";
     from "node_L3047289";
     to "node_X3047289A";
     nominal_voltage 7199.558;
     phases AS;
}

object transformer {
     configuration "T_config_5050B";
     name "T228091193B";
     from "node_L3047289";
     to "node_X3047289B";
     nominal_voltage 7199.558;
     phases BS;
}

object transformer {
     configuration "T_config_5050C";
     name "T228091193C";
     from "node_L3047289";
     to "node_X3047289C";
     nominal_voltage 7199.558;
     phases CS;
}

object transformer {
     configuration "T_config_1515C";
     name "T5302862C";
     from "node_L3085399";
     to "node_X3085399C";
     nominal_voltage 7199.558;
     phases CS;
}

object transformer {
     configuration "T_config_5050B";
     name "T21236413B";
     from "node_L3085391";
     to "node_X3085391B";
     nominal_voltage 7199.558;
     phases BS;
}

object transformer {
     configuration "T_config_1010A";
     name "T5302468A";
     from "node_L2897778";
     to "node_X2897778A";
     nominal_voltage 7199.558;
     phases AS;
}

object transformer {
     configuration "T_config_1010A";
     name "T5294787A";
     from "node_L3197647";
     to "node_X3197647A";
     nominal_voltage 7199.558;
     phases AS;
}

object transformer {
     configuration "T_config_1010B";
     name "T5157715B";
     from "node_L2936275";
     to "node_X2936275B";
     nominal_voltage 7199.558;
     phases BS;
}

object transformer {
     configuration "T_config_2525B";
     name "T5355768B";
     from "node_L2729408";
     to "node_X2729408B";
     nominal_voltage 7199.558;
     phases BS;
}

object transformer {
     configuration "T_config_2525A";
     name "T5138562A";
     from "node_L2673310";
     to "node_X2673310A";
     nominal_voltage 7199.558;
     phases AS;
}

object transformer {
     configuration "T_config_1010A";
     name "T5355934A";
     from "node_L3048212";
     to "node_X3048212A";
     nominal_voltage 7199.558;
     phases AS;
}

object transformer {
     configuration "T_config_2525A";
     name "T5293483A";
     from "node_L3104133";
     to "node_X3104133A";
     nominal_voltage 7199.558;
     phases AS;
}

object transformer {
     configuration "T_config_1515A";
     name "T21399762A";
     from "node_L2879087";
     to "node_X2879087A";
     nominal_voltage 7199.558;
     phases AS;
}

object transformer {
     configuration "T_config_1010C";
     name "T5138650C";
     from "node_L2710510";
     to "node_X2710510C";
     nominal_voltage 7199.558;
     phases CS;
}

object transformer {
     configuration "T_config_2525B";
     name "T5323242B";
     from "node_L3122810";
     to "node_X3122810B";
     nominal_voltage 7199.558;
     phases BS;
}

object transformer {
     configuration "T_config_2525C";
     name "T28127090C";
     from "node_L2954352";
     to "node_X2954352C";
     nominal_voltage 7199.558;
     phases CS;
}

object transformer {
     configuration "T_config_1010A";
     name "T5138769A";
     from "node_L2729411";
     to "node_X2729411A";
     nominal_voltage 7199.558;
     phases AS;
}

object transformer {
     configuration "T_config_1515A";
     name "T5338896A";
     from "node_L3178971";
     to "node_X3178971A";
     nominal_voltage 7199.558;
     phases AS;
}

object transformer {
     configuration "T_config_2525B";
     name "T5355586B";
     from "node_L3254234";
     to "node_X3254234B";
     nominal_voltage 7199.558;
     phases BS;
}

object transformer {
     configuration "T_config_2525A";
     name "T5293471A";
     from "node_293471";
     to "node_X_293471A";
     nominal_voltage 7199.558;
     phases AS;
}

object transformer {
     configuration "T_config_2525B";
     name "T5293471B";
     from "node_293471";
     to "node_X_293471B";
     nominal_voltage 7199.558;
     phases BS;
}

object transformer {
     configuration "T_config_2525C";
     name "T5293471C";
     from "node_293471";
     to "node_X_293471C";
     nominal_voltage 7199.558;
     phases CS;
}

object transformer {
     configuration "T_config_2525A";
     name "T5338954A";
     from "node_L2860482";
     to "node_X2860482A";
     nominal_voltage 7199.558;
     phases AS;
}

object transformer {
     configuration "T_config_7575C";
     name "T21459629C";
     from "node_L2763811";
     to "node_X2763811C";
     nominal_voltage 7199.558;
     phases CS;
}

object transformer {
     configuration "T_config_3838A";
     name "T5260562A";
     from "node_L3251799";
     to "node_X3251799A";
     nominal_voltage 7199.558;
     phases AS;
}

object transformer {
     configuration "T_config_1515C";
     name "T21393486C";
     from "node_L2898526";
     to "node_X2898526C";
     nominal_voltage 7199.558;
     phases CS;
}

object transformer {
     configuration "T_config_2525B";
     name "T5293518B";
     from "node_L2897780";
     to "node_X2897780B";
     nominal_voltage 7199.558;
     phases BS;
}

object transformer {
     configuration "T_config_2525C";
     name "T226195194C";
     from "node_L3027124";
     to "node_X3027124C";
     nominal_voltage 7199.558;
     phases CS;
}

object transformer {
     configuration "T_config_2525B";
     name "T21383494B";
     from "node_L2954361";
     to "node_X2954361B";
     nominal_voltage 7199.558;
     phases BS;
}

object transformer {
     configuration "T_config_2525C";
     name "T5251863C";
     from "node_L2745811";
     to "node_X2745811C";
     nominal_voltage 7199.558;
     phases CS;
}

object transformer {
     configuration "T_config_2525A";
     name "T5293645A";
     from "node_L2841633";
     to "node_X2841633A";
     nominal_voltage 7199.558;
     phases AS;
}

object transformer {
     configuration "T_config_1515A";
     name "T21482431A";
     from "node_L2917359";
     to "node_X2917359A";
     nominal_voltage 7199.558;
     phases AS;
}

object transformer {
     configuration "T_config_1515A";
     name "T5293480A";
     from "node_L2748158";
     to "node_X2748158A";
     nominal_voltage 7199.558;
     phases AS;
}

object transformer {
     configuration "T_config_2525A";
     name "T21469911A";
     from "node_L2955047";
     to "node_X2955047A";
     nominal_voltage 7199.558;
     phases AS;
}

object transformer {
     configuration "T_config_3838C";
     name "T5355432C";
     from "node_L3122837";
     to "node_X3122837C";
     nominal_voltage 7199.558;
     phases CS;
}

object transformer {
     configuration "T_config_2525B";
     name "T5323285B";
     from "node_L2804269";
     to "node_X2804269B";
     nominal_voltage 7199.558;
     phases BS;
}

object transformer {
     configuration "T_config_1515C";
     name "T226192954C";
     from "node_L3157708";
     to "node_X3157708C";
     nominal_voltage 7199.558;
     phases CS;
}

object transformer {
     configuration "T_config_1515C";
     name "T5207292C";
     from "node_L3179682";
     to "node_X3179682C";
     nominal_voltage 7199.558;
     phases CS;
}

object transformer {
     configuration "T_config_1515B";
     name "T5337672B";
     from "node_L2822877";
     to "node_X2822877B";
     nominal_voltage 7199.558;
     phases BS;
}

object transformer {
     configuration "T_config_2525C";
     name "T5442373C";
     from "node_L3141393";
     to "node_X3141393C";
     nominal_voltage 7199.558;
     phases CS;
}

object transformer {
     configuration "T_config_3838A";
     name "T21470405A";
     from "node_L2897801";
     to "node_X2897801A";
     nominal_voltage 7199.558;
     phases AS;
}

object transformer {
     configuration "T_config_5050A";
     name "T5218474A";
     from "node_L3217056";
     to "node_X3217056A";
     nominal_voltage 7199.558;
     phases AS;
}

object transformer {
     configuration "T_config_2525A";
     name "T5218472A";
     from "node_L2936270";
     to "node_X2936270A";
     nominal_voltage 7199.558;
     phases AS;
}

object transformer {
     configuration "T_config_1010A";
     name "T5356014A";
     from "node_L3235249";
     to "node_X3235249A";
     nominal_voltage 7199.558;
     phases AS;
}

object transformer {
     configuration "T_config_2525C";
     name "T5260528C";
     from "node_L3217052";
     to "node_X3217052C";
     nominal_voltage 7199.558;
     phases CS;
}

object transformer {
     configuration "T_config_1010A";
     name "T5355933A";
     from "node_L2916598";
     to "node_X2916598A";
     nominal_voltage 7199.558;
     phases AS;
}

object transformer {
     configuration "T_config_2525A";
     name "T5138649A";
     from "node_L3048206";
     to "node_X3048206A";
     nominal_voltage 7199.558;
     phases AS;
}

object transformer {
     configuration "T_config_2525C";
     name "T5391978C";
     from "node_L3141402";
     to "node_X3141402C";
     nominal_voltage 7199.558;
     phases CS;
}

object transformer {
     configuration "T_config_1515A";
     name "T5138642A";
     from "node_L3235256";
     to "node_X3235256A";
     nominal_voltage 7199.558;
     phases AS;
}

object transformer {
     configuration "T_config_2525A";
     name "T21149420A";
     from "node_L3178973";
     to "node_X3178973A";
     nominal_voltage 7199.558;
     phases AS;
}

object transformer {
     configuration "T_config_2525A";
     name "T21382992A";
     from "node_L3197654";
     to "node_X3197654A";
     nominal_voltage 7199.558;
     phases AS;
}

object transformer {
     configuration "T_config_2525C";
     name "T5338958C";
     from "node_L3066809";
     to "node_X3066809C";
     nominal_voltage 7199.558;
     phases CS;
}

object transformer {
     configuration "T_config_1515B";
     name "T5355585B";
     from "node_L2766742";
     to "node_X2766742B";
     nominal_voltage 7199.558;
     phases BS;
}

object transformer {
     configuration "T_config_1515A";
     name "T5338900A";
     from "node_L2991908";
     to "node_X2991908A";
     nominal_voltage 7199.558;
     phases AS;
}

object transformer {
     configuration "T_config_2525B";
     name "T5323389B";
     from "node_L3065750";
     to "node_X3065750B";
     nominal_voltage 7199.558;
     phases BS;
}

object transformer {
     configuration "T_config_3838A";
     name "T28127253A";
     from "node_L3085401";
     to "node_X3085401A";
     nominal_voltage 7199.558;
     phases AS;
}

object transformer {
     configuration "T_config_1515A";
     name "T21397067A";
     from "node_L2729413";
     to "node_X2729413A";
     nominal_voltage 7199.558;
     phases AS;
}

object transformer {
     configuration "T_config_55B";
     name "T5260520B";
     from "node_L3254915";
     to "node_X3254915B";
     nominal_voltage 7199.558;
     phases BS;
}

object transformer {
     configuration "T_config_1515B";
     name "T5323250B";
     from "node_L2748131";
     to "node_X2748131B";
     nominal_voltage 7199.558;
     phases BS;
}

object transformer {
     configuration "T_config_2525C";
     name "T5337659C";
     from "node_L3066810";
     to "node_X3066810C";
     nominal_voltage 7199.558;
     phases CS;
}

object transformer {
     configuration "T_config_2525B";
     name "T28118903B";
     from "node_L2973146";
     to "node_X2973146B";
     nominal_voltage 7199.558;
     phases BS;
}

object transformer {
     configuration "T_config_2525B";
     name "T21398646B";
     from "node_L2973180";
     to "node_X2973180B";
     nominal_voltage 7199.558;
     phases BS;
}

object transformer {
     configuration "T_config_1515B";
     name "T5293656B";
     from "node_L2973167";
     to "node_X2973167B";
     nominal_voltage 7199.558;
     phases BS;
}

object transformer {
     configuration "T_config_2525C";
     name "T5338910C";
     from "node_L2841621";
     to "node_X2841621C";
     nominal_voltage 7199.558;
     phases CS;
}

object transformer {
     configuration "T_config_1515C";
     name "T28129923C";
     from "node_L3123509";
     to "node_X3123509C";
     nominal_voltage 7199.558;
     phases CS;
}

object transformer {
     configuration "T_config_1515A";
     name "T5337716A";
     from "node_L2841627";
     to "node_X2841627A";
     nominal_voltage 7199.558;
     phases AS;
}

object transformer {
     configuration "T_config_1010B";
     name "T5337698B";
     from "node_L3235250";
     to "node_X3235250B";
     nominal_voltage 7199.558;
     phases BS;
}

object transformer {
     configuration "T_config_2525A";
     name "T2224386946A";
     from "node_L3728037";
     to "node_X3728037A";
     nominal_voltage 7199.558;
     phases AS;
}

object transformer {
     configuration "T_config_1010B";
     name "T5330121B";
     from "node_L3142078";
     to "node_X3142078B";
     nominal_voltage 7199.558;
     phases BS;
}

object transformer {
     configuration "T_config_1515B";
     name "T5323252B";
     from "node_L2879066";
     to "node_X2879066B";
     nominal_voltage 7199.558;
     phases BS;
}

object transformer {
     configuration "T_config_2525C";
     name "T5441331C";
     from "node_L3235254";
     to "node_X3235254C";
     nominal_voltage 7199.558;
     phases CS;
}

object transformer {
     configuration "T_config_2525A";
     name "T5260474A";
     from "node_L2917330";
     to "node_X2917330A";
     nominal_voltage 7199.558;
     phases AS;
}

object transformer {
     configuration "T_config_1010B";
     name "T5355376B";
     from "node_L2914323";
     to "node_X2914323B";
     nominal_voltage 7199.558;
     phases BS;
}

object transformer {
     configuration "T_config_1010C";
     name "T5338944C";
     from "node_L3197640";
     to "node_X3197640C";
     nominal_voltage 7199.558;
     phases CS;
}

object transformer {
     configuration "T_config_1515C";
     name "T5260640C";
     from "node_L3179673";
     to "node_X3179673C";
     nominal_voltage 7199.558;
     phases CS;
}

object transformer {
     configuration "T_config_2525C";
     name "T5274997C";
     from "node_L3048228";
     to "node_X3048228C";
     nominal_voltage 7199.558;
     phases CS;
}

object transformer {
     configuration "T_config_1010C";
     name "T5138372C";
     from "node_L3104126";
     to "node_X3104126C";
     nominal_voltage 7199.558;
     phases CS;
}

object transformer {
     configuration "T_config_5050A";
     name "T226308721A";
     from "node_L2990098";
     to "node_X2990098A";
     nominal_voltage 7199.558;
     phases AS;
}

object transformer {
     configuration "T_config_2525A";
     name "T21380616A";
     from "node_L2879067";
     to "node_X2879067A";
     nominal_voltage 7199.558;
     phases AS;
}

object transformer {
     configuration "T_config_2525A";
     name "T226193170A";
     from "node_L3176656";
     to "node_X3176656A";
     nominal_voltage 7199.558;
     phases AS;
}

object transformer {
     configuration "T_config_1010C";
     name "T5293666C";
     from "node_L2710532";
     to "node_X2710532C";
     nominal_voltage 7199.558;
     phases CS;
}

object transformer {
     configuration "T_config_5050B";
     name "T5338994B";
     from "node_L3160115";
     to "node_X3160115B";
     nominal_voltage 7199.558;
     phases BS;
}

object transformer {
     configuration "T_config_3838C";
     name "T228665517C";
     from "node_L3103822";
     to "node_X3103822C";
     nominal_voltage 7199.558;
     phases CS;
}

object transformer {
     configuration "T_config_1010A";
     name "T5260647A";
     from "node_L2805034";
     to "node_X2805034A";
     nominal_voltage 7199.558;
     phases AS;
}

object transformer {
     configuration "T_config_1515A";
     name "T226115278A";
     from "node_L3157167";
     to "node_X3157167A";
     nominal_voltage 7199.558;
     phases AS;
}

object transformer {
     configuration "T_config_1010A";
     name "T5338977A";
     from "node_L2916620";
     to "node_X2916620A";
     nominal_voltage 7199.558;
     phases AS;
}

object transformer {
     configuration "T_config_1010B";
     name "T5338977B";
     from "node_L2916620";
     to "node_X2916620B";
     nominal_voltage 7199.558;
     phases BS;
}

object transformer {
     configuration "T_config_1010C";
     name "T5338977C";
     from "node_L2916620";
     to "node_X2916620C";
     nominal_voltage 7199.558;
     phases CS;
}

object transformer {
     configuration "T_config_1515A";
     name "T5321876A";
     from "node_L3027132";
     to "node_X3027132A";
     nominal_voltage 7199.558;
     phases AS;
}

object transformer {
     configuration "T_config_1515C";
     name "T5275001C";
     from "node_L2822862";
     to "node_X2822862C";
     nominal_voltage 7199.558;
     phases CS;
}

object transformer {
     configuration "T_config_2525C";
     name "T227411650C";
     from "node_L2937757";
     to "node_X2937757C";
     nominal_voltage 7199.558;
     phases CS;
}

object transformer {
     configuration "T_config_2525B";
     name "T21396699B";
     from "node_L2860483";
     to "node_X2860483B";
     nominal_voltage 7199.558;
     phases BS;
}

object transformer {
     configuration "T_config_3838A";
     name "T5302412A";
     from "node_L3048210";
     to "node_X3048210A";
     nominal_voltage 7199.558;
     phases AS;
}

object transformer {
     configuration "T_config_2525A";
     name "T2223661373A";
     from "node_L3312692";
     to "node_X3312692A";
     nominal_voltage 7199.558;
     phases AS;
}

object transformer {
     configuration "T_config_2525A";
     name "T226881700A";
     from "node_L3251854";
     to "node_X3251854A";
     nominal_voltage 7199.558;
     phases AS;
}

object transformer {
     configuration "T_config_2525B";
     name "T5355777B";
     from "node_L3085398";
     to "node_X3085398B";
     nominal_voltage 7199.558;
     phases BS;
}

object transformer {
     configuration "T_config_1515A";
     name "T5337671A";
     from "node_L3254207";
     to "node_X3254207A";
     nominal_voltage 7199.558;
     phases AS;
}

object transformer {
     configuration "T_config_1515A";
     name "T5339018A";
     from "node_L2729424";
     to "node_X2729424A";
     nominal_voltage 7199.558;
     phases AS;
}

object transformer {
     configuration "T_config_1515A";
     name "T21398676A";
     from "node_L3066816";
     to "node_X3066816A";
     nominal_voltage 7199.558;
     phases AS;
}

object transformer {
     configuration "T_config_1515C";
     name "T5138469C";
     from "node_L2785518";
     to "node_X2785518C";
     nominal_voltage 7199.558;
     phases CS;
}

object transformer {
     configuration "T_config_1515C";
     name "T5138373C";
     from "node_L3029503";
     to "node_X3029503C";
     nominal_voltage 7199.558;
     phases CS;
}

object transformer {
     configuration "T_config_2525A";
     name "T5391995A";
     from "node_L2748140";
     to "node_X2748140A";
     nominal_voltage 7199.558;
     phases AS;
}

object transformer {
     configuration "T_config_1515C";
     name "T225533423C";
     from "node_L2891575";
     to "node_X2891575C";
     nominal_voltage 7199.558;
     phases CS;
}

object transformer {
     configuration "T_config_1515C";
     name "T5260568C";
     from "node_L2842329";
     to "node_X2842329C";
     nominal_voltage 7199.558;
     phases CS;
}

object transformer {
     configuration "T_config_3838B";
     name "T5138754B";
     from "node_L3254212";
     to "node_X3254212B";
     nominal_voltage 7199.558;
     phases BS;
}

object transformer {
     configuration "T_config_5050A";
     name "T5260552A";
     from "node_L3198348";
     to "node_X3198348A";
     nominal_voltage 7199.558;
     phases AS;
}

object transformer {
     configuration "T_config_3838C";
     name "T5338968C";
     from "node_L3178979";
     to "node_X3178979C";
     nominal_voltage 7199.558;
     phases CS;
}

object transformer {
     configuration "T_config_2525A";
     name "T5247061A";
     from "node_L2879054";
     to "node_X2879054A";
     nominal_voltage 7199.558;
     phases AS;
}

object transformer {
     configuration "T_config_1010B";
     name "T5391746B";
     from "node_L3085388";
     to "node_X3085388B";
     nominal_voltage 7199.558;
     phases BS;
}

object transformer {
     configuration "T_config_1515C";
     name "T5338941C";
     from "node_L2991914";
     to "node_X2991914C";
     nominal_voltage 7199.558;
     phases CS;
}

object transformer {
     configuration "T_config_2525B";
     name "T5338982B";
     from "node_L2785534";
     to "node_X2785534B";
     nominal_voltage 7199.558;
     phases BS;
}

object transformer {
     configuration "T_config_1515B";
     name "T5339008B";
     from "node_L3122835";
     to "node_X3122835B";
     nominal_voltage 7199.558;
     phases BS;
}

object transformer {
     configuration "T_config_1515A";
     name "T21391094A";
     from "node_L3085395";
     to "node_X3085395A";
     nominal_voltage 7199.558;
     phases AS;
}

object transformer {
     configuration "T_config_2525A";
     name "T5138581A";
     from "node_L2879064";
     to "node_X2879064A";
     nominal_voltage 7199.558;
     phases AS;
}

object transformer {
     configuration "T_config_1010B";
     name "T5338979B";
     from "node_L3066814";
     to "node_X3066814B";
     nominal_voltage 7199.558;
     phases BS;
}

object transformer {
     configuration "T_config_7575A";
     name "T226308720A";
     from "node_L2821087";
     to "node_X2821087A";
     nominal_voltage 7199.558;
     phases AS;
}

object transformer {
     configuration "T_config_1010B";
     name "T5355595B";
     from "node_L2860479";
     to "node_X2860479B";
     nominal_voltage 7199.558;
     phases BS;
}

object transformer {
     configuration "T_config_3838A";
     name "T2224387113A";
     from "node_L3728042";
     to "node_X3728042A";
     nominal_voltage 7199.558;
     phases AS;
}

object transformer {
     configuration "T_config_3838A";
     name "T21397005A";
     from "node_L2935557";
     to "node_X2935557A";
     nominal_voltage 7199.558;
     phases AS;
}

object transformer {
     configuration "T_config_1515C";
     name "T5274985C";
     from "node_L2822864";
     to "node_X2822864C";
     nominal_voltage 7199.558;
     phases CS;
}

object transformer {
     configuration "T_config_1515A";
     name "T5321836A";
     from "node_L3235247";
     to "node_X3235247A";
     nominal_voltage 7199.558;
     phases AS;
}

object transformer {
     configuration "T_config_2525A";
     name "T225673440A";
     from "node_L3251807";
     to "node_X3251807A";
     nominal_voltage 7199.558;
     phases AS;
}

object transformer {
     configuration "T_config_1515C";
     name "T5337641C";
     from "node_L2804282";
     to "node_X2804282C";
     nominal_voltage 7199.558;
     phases CS;
}

object transformer {
     configuration "T_config_1515C";
     name "T5293659C";
     from "node_L2935560";
     to "node_X2935560C";
     nominal_voltage 7199.558;
     phases CS;
}

object transformer {
     configuration "T_config_1515B";
     name "T5339011B";
     from "node_L3104145";
     to "node_X3104145B";
     nominal_voltage 7199.558;
     phases BS;
}

object transformer {
     configuration "T_config_2525A";
     name "T5218473A";
     from "node_L3086078";
     to "node_X3086078A";
     nominal_voltage 7199.558;
     phases AS;
}

object transformer {
     configuration "T_config_1515A";
     name "T28121587A";
     from "node_L2860477";
     to "node_X2860477A";
     nominal_voltage 7199.558;
     phases AS;
}

object transformer {
     configuration "T_config_7575C";
     name "T2224230689C";
     from "node_L3645811";
     to "node_X3645811C";
     nominal_voltage 7199.558;
     phases CS;
}

object transformer {
     configuration "T_config_2525B";
     name "T227734175B";
     from "node_L3102793";
     to "node_X3102793B";
     nominal_voltage 7199.558;
     phases BS;
}

object transformer {
     configuration "T_config_1515B";
     name "T5337694B";
     from "node_L2991910";
     to "node_X2991910B";
     nominal_voltage 7199.558;
     phases BS;
}

object transformer {
     configuration "T_config_2525A";
     name "T21357515A";
     from "node_L2710511";
     to "node_X2710511A";
     nominal_voltage 7199.558;
     phases AS;
}

object transformer {
     configuration "T_config_1515C";
     name "T28127390C";
     from "node_L2860486";
     to "node_X2860486C";
     nominal_voltage 7199.558;
     phases CS;
}

object transformer {
     configuration "T_config_1515C";
     name "T21387929C";
     from "node_L2935551";
     to "node_X2935551C";
     nominal_voltage 7199.558;
     phases CS;
}

object transformer {
     configuration "T_config_2525B";
     name "T5355605B";
     from "node_L2729409";
     to "node_X2729409B";
     nominal_voltage 7199.558;
     phases BS;
}

object transformer {
     configuration "T_config_1515B";
     name "T5260630B";
     from "node_L2973833";
     to "node_X2973833B";
     nominal_voltage 7199.558;
     phases BS;
}

object transformer {
     configuration "T_config_2525C";
     name "T5337660C";
     from "node_L2897769";
     to "node_X2897769C";
     nominal_voltage 7199.558;
     phases CS;
}

object transformer {
     configuration "T_config_1515C";
     name "T5293663C";
     from "node_L3216368";
     to "node_X3216368C";
     nominal_voltage 7199.558;
     phases CS;
}

object transformer {
     configuration "T_config_2525A";
     name "T5138719A";
     from "node_L2860490";
     to "node_X2860490A";
     nominal_voltage 7199.558;
     phases AS;
}

object transformer {
     configuration "T_config_2525C";
     name "T5251858C";
     from "node_L2861158";
     to "node_X2861158C";
     nominal_voltage 7199.558;
     phases CS;
}

object transformer {
     configuration "T_config_3838C";
     name "T5302804C";
     from "node_L3141399";
     to "node_X3141399C";
     nominal_voltage 7199.558;
     phases CS;
}

object transformer {
     configuration "T_config_2525B";
     name "T5356062B";
     from "node_L3122816";
     to "node_X3122816B";
     nominal_voltage 7199.558;
     phases BS;
}

object transformer {
     configuration "T_config_1515C";
     name "T5346639C";
     from "node_L2992556";
     to "node_X2992556C";
     nominal_voltage 7199.558;
     phases CS;
}

object transformer {
     configuration "T_config_2525C";
     name "T5302508C";
     from "node_L2897779";
     to "node_X2897779C";
     nominal_voltage 7199.558;
     phases CS;
}

object transformer {
     configuration "T_config_2525A";
     name "T5321881A";
     from "node_L2970811";
     to "node_X2970811A";
     nominal_voltage 7199.558;
     phases AS;
}

object transformer {
     configuration "T_config_5050C";
     name "T5355433C";
     from "node_L2991933";
     to "node_X2991933C";
     nominal_voltage 7199.558;
     phases CS;
}

object transformer {
     configuration "T_config_1515A";
     name "T21398402A";
     from "node_L2729428";
     to "node_X2729428A";
     nominal_voltage 7199.558;
     phases AS;
}

object transformer {
     configuration "T_config_2525A";
     name "T21398563A";
     from "node_L3254216";
     to "node_X3254216A";
     nominal_voltage 7199.558;
     phases AS;
}

object transformer {
     configuration "T_config_1515B";
     name "T21386771B";
     from "node_L2897807";
     to "node_X2897807B";
     nominal_voltage 7199.558;
     phases BS;
}

object transformer {
     configuration "T_config_2525A";
     name "T5260648A";
     from "node_L2898522";
     to "node_X2898522A";
     nominal_voltage 7199.558;
     phases AS;
}

object transformer {
     configuration "T_config_2525C";
     name "T5293490C";
     from "node_L3048230";
     to "node_X3048230C";
     nominal_voltage 7199.558;
     phases CS;
}

object transformer {
     configuration "T_config_1515A";
     name "T225901711A";
     from "node_L3195327";
     to "node_X3195327A";
     nominal_voltage 7199.558;
     phases AS;
}

object transformer {
     configuration "T_config_3838A";
     name "T227902981A";
     from "node_L3047058";
     to "node_X3047058A";
     nominal_voltage 7199.558;
     phases AS;
}

object transformer {
     configuration "T_config_2525B";
     name "T5321853B";
     from "node_L2673313";
     to "node_X2673313B";
     nominal_voltage 7199.558;
     phases BS;
}

object transformer {
     configuration "T_config_3838A";
     name "T2224237653A";
     from "node_L3649302";
     to "node_X3649302A";
     nominal_voltage 7199.558;
     phases AS;
}

object transformer {
     configuration "T_config_2525A";
     name "T2224386592A";
     from "node_L3729297";
     to "node_X3729297A";
     nominal_voltage 7199.558;
     phases AS;
}

object transformer {
     configuration "T_config_1515A";
     name "T5391990A";
     from "node_L2858163";
     to "node_X2858163A";
     nominal_voltage 7199.558;
     phases AS;
}

object transformer {
     configuration "T_config_1515B";
     name "T226881057B";
     from "node_L3214112";
     to "node_X3214112B";
     nominal_voltage 7199.558;
     phases BS;
}

object transformer {
     configuration "T_config_2525A";
     name "T225533531A";
     from "node_L2685805";
     to "node_X2685805A";
     nominal_voltage 7199.558;
     phases AS;
}

object transformer {
     configuration "T_config_1515A";
     name "T5247056A";
     from "node_L2991912";
     to "node_X2991912A";
     nominal_voltage 7199.558;
     phases AS;
}

object transformer {
     configuration "T_config_2525A";
     name "T227905262A";
     from "node_L3140238";
     to "node_X3140238A";
     nominal_voltage 7199.558;
     phases AS;
}

object transformer {
     configuration "T_config_2525B";
     name "T21469960B";
     from "node_L3066830";
     to "node_X3066830B";
     nominal_voltage 7199.558;
     phases BS;
}

object transformer {
     configuration "T_config_1515C";
     name "T5260511C";
     from "node_L3160878";
     to "node_X3160878C";
     nominal_voltage 7199.558;
     phases CS;
}

object transformer {
     configuration "T_config_1515C";
     name "T5138346C";
     from "node_L2916609";
     to "node_X2916609C";
     nominal_voltage 7199.558;
     phases CS;
}

object transformer {
     configuration "T_config_1010A";
     name "T225806974A";
     from "node_L2876814";
     to "node_X2876814A";
     nominal_voltage 7199.558;
     phases AS;
}

object transformer {
     configuration "T_config_2525B";
     name "T5355944B";
     from "node_L3197646";
     to "node_X3197646B";
     nominal_voltage 7199.558;
     phases BS;
}

object transformer {
     configuration "T_config_1515A";
     name "T5138569A";
     from "node_L2973151";
     to "node_X2973151A";
     nominal_voltage 7199.558;
     phases AS;
}

object transformer {
     configuration "T_config_2525C";
     name "T5337625C";
     from "node_L3197627";
     to "node_X3197627C";
     nominal_voltage 7199.558;
     phases CS;
}

object transformer {
     configuration "T_config_2525A";
     name "T5321874A";
     from "node_L2764412";
     to "node_X2764412A";
     nominal_voltage 7199.558;
     phases AS;
}

object transformer {
     configuration "T_config_1515C";
     name "T5337713C";
     from "node_L2766716";
     to "node_X2766716C";
     nominal_voltage 7199.558;
     phases CS;
}

object transformer {
     configuration "T_config_1010B";
     name "T5391757B";
     from "node_L2991917";
     to "node_X2991917B";
     nominal_voltage 7199.558;
     phases BS;
}

object transformer {
     configuration "T_config_2525B";
     name "T5338998B";
     from "node_L3254229";
     to "node_X3254229B";
     nominal_voltage 7199.558;
     phases BS;
}

object transformer {
     configuration "T_config_2525B";
     name "T5356064B";
     from "node_L2935556";
     to "node_X2935556B";
     nominal_voltage 7199.558;
     phases BS;
}

object transformer {
     configuration "T_config_2525B";
     name "T5323275B";
     from "node_L3197660";
     to "node_X3197660B";
     nominal_voltage 7199.558;
     phases BS;
}

object transformer {
     configuration "T_config_2525A";
     name "T21389237A";
     from "node_L2989565";
     to "node_X2989565A";
     nominal_voltage 7199.558;
     phases AS;
}

object transformer {
     configuration "T_config_5050C";
     name "T2224230615C";
     from "node_L3645809";
     to "node_X3645809C";
     nominal_voltage 7199.558;
     phases CS;
}

object transformer {
     configuration "T_config_1515B";
     name "T5260463B";
     from "node_L3086075";
     to "node_X3086075B";
     nominal_voltage 7199.558;
     phases BS;
}

object transformer {
     configuration "T_config_1515A";
     name "T5302402A";
     from "node_L3122824";
     to "node_X3122824A";
     nominal_voltage 7199.558;
     phases AS;
}

object transformer {
     configuration "T_config_2525B";
     name "T5355599B";
     from "node_L3216338";
     to "node_X3216338B";
     nominal_voltage 7199.558;
     phases BS;
}

object transformer {
     configuration "T_config_2525B";
     name "T21393412B";
     from "node_L2729405";
     to "node_X2729405B";
     nominal_voltage 7199.558;
     phases BS;
}

object transformer {
     configuration "T_config_2525A";
     name "T5356807A";
     from "node_L2823545";
     to "node_X2823545A";
     nominal_voltage 7199.558;
     phases AS;
}

object transformer {
     configuration "T_config_2525B";
     name "T5293660B";
     from "node_L2916610";
     to "node_X2916610B";
     nominal_voltage 7199.558;
     phases BS;
}

object transformer {
     configuration "T_config_3838A";
     name "T227731863A";
     from "node_L3177665";
     to "node_X3177665A";
     nominal_voltage 7199.558;
     phases AS;
}

object transformer {
     configuration "T_config_5050A";
     name "T227760021A";
     from "node_L2803199";
     to "node_X2803199A";
     nominal_voltage 7199.558;
     phases AS;
}

object transformer {
     configuration "T_config_5050B";
     name "T227760021B";
     from "node_L2803199";
     to "node_X2803199B";
     nominal_voltage 7199.558;
     phases BS;
}

object transformer {
     configuration "T_config_5050C";
     name "T227760021C";
     from "node_L2803199";
     to "node_X2803199C";
     nominal_voltage 7199.558;
     phases CS;
}

object transformer {
     configuration "T_config_1515A";
     name "T5391980A";
     from "node_L2691952";
     to "node_X2691952A";
     nominal_voltage 7199.558;
     phases AS;
}

object transformer {
     configuration "T_config_2525A";
     name "T5338984A";
     from "node_L2748144";
     to "node_X2748144A";
     nominal_voltage 7199.558;
     phases AS;
}

object transformer {
     configuration "T_config_2525B";
     name "T5337702B";
     from "node_L3029504";
     to "node_X3029504B";
     nominal_voltage 7199.558;
     phases BS;
}

object transformer {
     configuration "T_config_1515B";
     name "T5337696B";
     from "node_L3197635";
     to "node_X3197635B";
     nominal_voltage 7199.558;
     phases BS;
}

object transformer {
     configuration "T_config_2525C";
     name "T225577437C";
     from "node_L2724120";
     to "node_X2724120C";
     nominal_voltage 7199.558;
     phases CS;
}

object transformer {
     configuration "T_config_2525A";
     name "T5337676A";
     from "node_L3235244";
     to "node_X3235244A";
     nominal_voltage 7199.558;
     phases AS;
}

object transformer {
     configuration "T_config_2525A";
     name "T5323418A";
     from "node_L2804254";
     to "node_X2804254A";
     nominal_voltage 7199.558;
     phases AS;
}

object transformer {
     configuration "T_config_2525B";
     name "T226192936B";
     from "node_L2820531";
     to "node_X2820531B";
     nominal_voltage 7199.558;
     phases BS;
}

object transformer {
     configuration "T_config_2525B";
     name "T5337706B";
     from "node_L3254214";
     to "node_X3254214B";
     nominal_voltage 7199.558;
     phases BS;
}

object transformer {
     configuration "T_config_5050B";
     name "T5339010B";
     from "node_L2691966";
     to "node_X2691966B";
     nominal_voltage 7199.558;
     phases BS;
}

object transformer {
     configuration "T_config_2525A";
     name "T5391987A";
     from "node_L3122822";
     to "node_X3122822A";
     nominal_voltage 7199.558;
     phases AS;
}

object transformer {
     configuration "T_config_2525A";
     name "T5310569A";
     from "node_L3197639";
     to "node_X3197639A";
     nominal_voltage 7199.558;
     phases AS;
}

object transformer {
     configuration "T_config_1515A";
     name "T225869139A";
     from "node_L3120503";
     to "node_X3120503A";
     nominal_voltage 7199.558;
     phases AS;
}

object transformer {
     configuration "T_config_1515B";
     name "T5337708B";
     from "node_L3216349";
     to "node_X3216349B";
     nominal_voltage 7199.558;
     phases BS;
}

object transformer {
     configuration "T_config_7575B";
     name "T226308719B";
     from "node_L3027670";
     to "node_X3027670B";
     nominal_voltage 7199.558;
     phases BS;
}

object transformer {
     configuration "T_config_1515C";
     name "T5337630C";
     from "node_L3085392";
     to "node_X3085392C";
     nominal_voltage 7199.558;
     phases CS;
}

object transformer {
     configuration "T_config_1515A";
     name "T5138655A";
     from "node_L3010556";
     to "node_X3010556A";
     nominal_voltage 7199.558;
     phases AS;
}

object transformer {
     configuration "T_config_2525A";
     name "T226194826A";
     from "node_L3232902";
     to "node_X3232902A";
     nominal_voltage 7199.558;
     phases AS;
}

object transformer {
     configuration "T_config_3838A";
     name "T5356808A";
     from "node_L3101782";
     to "node_X3101782A";
     nominal_voltage 7199.558;
     phases AS;
}

object transformer {
     configuration "T_config_1515B";
     name "T5355593B";
     from "node_L2766715";
     to "node_X2766715B";
     nominal_voltage 7199.558;
     phases BS;
}

object transformer {
     configuration "T_config_2525C";
     name "T5356787C";
     from "node_L2970804";
     to "node_X2970804C";
     nominal_voltage 7199.558;
     phases CS;
}

object transformer {
     configuration "T_config_2525B";
     name "T5321845B";
     from "node_L3178975";
     to "node_X3178975B";
     nominal_voltage 7199.558;
     phases BS;
}

object transformer {
     configuration "T_config_1515A";
     name "T5337720A";
     from "node_L2841648";
     to "node_X2841648A";
     nominal_voltage 7199.558;
     phases AS;
}

object transformer {
     configuration "T_config_1010C";
     name "T5337631C";
     from "node_L3029497";
     to "node_X3029497C";
     nominal_voltage 7199.558;
     phases CS;
}

object transformer {
     configuration "T_config_1515B";
     name "T21486213B";
     from "node_L3029520";
     to "node_X3029520B";
     nominal_voltage 7199.558;
     phases BS;
}

object transformer {
     configuration "T_config_2525B";
     name "T28127319B";
     from "node_L2766744";
     to "node_X2766744B";
     nominal_voltage 7199.558;
     phases BS;
}

object transformer {
     configuration "T_config_2525B";
     name "T5337666B";
     from "node_L3029518";
     to "node_X3029518B";
     nominal_voltage 7199.558;
     phases BS;
}

object transformer {
     configuration "T_config_2525A";
     name "T5356809A";
     from "node_L2936214";
     to "node_X2936214A";
     nominal_voltage 7199.558;
     phases AS;
}

object transformer {
     configuration "T_config_2525B";
     name "T5323397B";
     from "node_L2954346";
     to "node_X2954346B";
     nominal_voltage 7199.558;
     phases BS;
}

object transformer {
     configuration "T_config_1010B";
     name "T5337692B";
     from "node_L2879061";
     to "node_X2879061B";
     nominal_voltage 7199.558;
     phases BS;
}

object transformer {
     configuration "T_config_2525B";
     name "T5339042B";
     from "node_L3141394";
     to "node_X3141394B";
     nominal_voltage 7199.558;
     phases BS;
}

object transformer {
     configuration "T_config_2525B";
     name "T5260501B";
     from "node_L3142098";
     to "node_X3142098B";
     nominal_voltage 7199.558;
     phases BS;
}

object transformer {
     configuration "T_config_3838C";
     name "T2224230754C";
     from "node_L3645812";
     to "node_X3645812C";
     nominal_voltage 7199.558;
     phases CS;
}

object transformer {
     configuration "T_config_2525A";
     name "T5138563A";
     from "node_L2916627";
     to "node_X2916627A";
     nominal_voltage 7199.558;
     phases AS;
}

object transformer {
     configuration "T_config_2525C";
     name "T5338936C";
     from "node_L3066815";
     to "node_X3066815C";
     nominal_voltage 7199.558;
     phases CS;
}

object transformer {
     configuration "T_config_1515B";
     name "T5247185B";
     from "node_L3179678";
     to "node_X3179678B";
     nominal_voltage 7199.558;
     phases BS;
}

object transformer {
     configuration "T_config_2525A";
     name "T21482181A";
     from "node_L3254237";
     to "node_X3254237A";
     nominal_voltage 7199.558;
     phases AS;
}

object transformer {
     configuration "T_config_2525B";
     name "T5323280B";
     from "node_L2710512";
     to "node_X2710512B";
     nominal_voltage 7199.558;
     phases BS;
}

object transformer {
     configuration "T_config_2525B";
     name "T5138264B";
     from "node_L3104125";
     to "node_X3104125B";
     nominal_voltage 7199.558;
     phases BS;
}

object transformer {
     configuration "T_config_1515A";
     name "T5337679A";
     from "node_L3010559";
     to "node_X3010559A";
     nominal_voltage 7199.558;
     phases AS;
}

object transformer {
     configuration "T_config_2525C";
     name "T21357984C";
     from "node_L2897790";
     to "node_X2897790C";
     nominal_voltage 7199.558;
     phases CS;
}

object transformer {
     configuration "T_config_1515C";
     name "T5260553C";
     from "node_L2711225";
     to "node_X2711225C";
     nominal_voltage 7199.558;
     phases CS;
}

object transformer {
     configuration "T_config_2525A";
     name "T5293523A";
     from "node_L2766729";
     to "node_X2766729A";
     nominal_voltage 7199.558;
     phases AS;
}

object transformer {
     configuration "T_config_2525B";
     name "T5302507B";
     from "node_L3235275";
     to "node_X3235275B";
     nominal_voltage 7199.558;
     phases BS;
}

object transformer {
     configuration "T_config_2525A";
     name "T2224387019A";
     from "node_L3728038";
     to "node_X3728038A";
     nominal_voltage 7199.558;
     phases AS;
}

object transformer {
     configuration "T_config_3838C";
     name "T5355431C";
     from "node_L3048222";
     to "node_X3048222C";
     nominal_voltage 7199.558;
     phases CS;
}

object transformer {
     configuration "T_config_2525C";
     name "T5138404C";
     from "node_L2841630";
     to "node_X2841630C";
     nominal_voltage 7199.558;
     phases CS;
}

object transformer {
     configuration "T_config_2525A";
     name "T5138574A";
     from "node_L2991907";
     to "node_X2991907A";
     nominal_voltage 7199.558;
     phases AS;
}

object transformer {
     configuration "T_config_2525C";
     name "T5138466C";
     from "node_L2973144";
     to "node_X2973144C";
     nominal_voltage 7199.558;
     phases CS;
}

object transformer {
     configuration "T_config_1515A";
     name "T21397721A";
     from "node_L3178976";
     to "node_X3178976A";
     nominal_voltage 7199.558;
     phases AS;
}

object transformer {
     configuration "T_config_2525A";
     name "T5337684A";
     from "node_L3159448";
     to "node_X3159448A";
     nominal_voltage 7199.558;
     phases AS;
}

object transformer {
     configuration "T_config_2525C";
     name "T5339051C";
     from "node_L3231255";
     to "node_X3231255C";
     nominal_voltage 7199.558;
     phases CS;
}

object transformer {
     configuration "T_config_1515C";
     name "T5337623C";
     from "node_L3197626";
     to "node_X3197626C";
     nominal_voltage 7199.558;
     phases CS;
}

object transformer {
     configuration "T_config_7575B";
     name "T226308725B";
     from "node_L2802480";
     to "node_X2802480B";
     nominal_voltage 7199.558;
     phases BS;
}

object transformer {
     configuration "T_config_2525A";
     name "T5356804A";
     from "node_L2823544";
     to "node_X2823544A";
     nominal_voltage 7199.558;
     phases AS;
}

object transformer {
     configuration "T_config_1515B";
     name "T5355604B";
     from "node_L2841624";
     to "node_X2841624B";
     nominal_voltage 7199.558;
     phases BS;
}

object transformer {
     configuration "T_config_7575C";
     name "T21459660C";
     from "node_L3101194";
     to "node_X3101194C";
     nominal_voltage 7199.558;
     phases CS;
}

object transformer {
     configuration "T_config_3838C";
     name "T5337636C";
     from "node_L2841619";
     to "node_X2841619C";
     nominal_voltage 7199.558;
     phases CS;
}

object transformer {
     configuration "T_config_2525C";
     name "T5260505C";
     from "node_L2861218";
     to "node_X2861218C";
     nominal_voltage 7199.558;
     phases CS;
}

object transformer {
     configuration "T_config_1010B";
     name "T5325245B";
     from "node_L2710513";
     to "node_X2710513B";
     nominal_voltage 7199.558;
     phases BS;
}

object transformer {
     configuration "T_config_1515C";
     name "T21385192C";
     from "node_L2879062";
     to "node_X2879062C";
     nominal_voltage 7199.558;
     phases CS;
}

object transformer {
     configuration "T_config_1010B";
     name "T5260496B";
     from "node_L2879767";
     to "node_X2879767B";
     nominal_voltage 7199.558;
     phases BS;
}

object transformer {
     configuration "T_config_1515C";
     name "T21399220C";
     from "node_L2766725";
     to "node_X2766725C";
     nominal_voltage 7199.558;
     phases CS;
}

object transformer {
     configuration "T_config_1515C";
     name "T5337655C";
     from "node_L3141396";
     to "node_X3141396C";
     nominal_voltage 7199.558;
     phases CS;
}

object transformer {
     configuration "T_config_1515B";
     name "T5330122B";
     from "node_L2879752";
     to "node_X2879752B";
     nominal_voltage 7199.558;
     phases BS;
}

object transformer {
     configuration "T_config_1515C";
     name "T28148060C";
     from "node_L2991940";
     to "node_X2991940C";
     nominal_voltage 7199.558;
     phases CS;
}

object transformer {
     configuration "T_config_2525A";
     name "T5302674A";
     from "node_L2673321";
     to "node_X2673321A";
     nominal_voltage 7199.558;
     phases AS;
}

object transformer {
     configuration "T_config_1515B";
     name "T5355601B";
     from "node_L2673326";
     to "node_X2673326B";
     nominal_voltage 7199.558;
     phases BS;
}

object transformer {
     configuration "T_config_2525C";
     name "T225533703C";
     from "node_L2925506";
     to "node_X2925506C";
     nominal_voltage 7199.558;
     phases CS;
}

object transformer {
     configuration "T_config_2525C";
     name "T5356814C";
     from "node_L2730106";
     to "node_X2730106C";
     nominal_voltage 7199.558;
     phases CS;
}

object transformer {
     configuration "T_config_2525A";
     name "T226196648A";
     from "node_L2820556";
     to "node_X2820556A";
     nominal_voltage 7199.558;
     phases AS;
}

object transformer {
     configuration "T_config_1515C";
     name "T5321861C";
     from "node_L3235248";
     to "node_X3235248C";
     nominal_voltage 7199.558;
     phases CS;
}

object transformer {
     configuration "T_config_2525B";
     name "T5355840B";
     from "node_L2822871";
     to "node_X2822871B";
     nominal_voltage 7199.558;
     phases BS;
}

object transformer {
     configuration "T_config_1515A";
     name "T21243817A";
     from "node_L2955076";
     to "node_X2955076A";
     nominal_voltage 7199.558;
     phases AS;
}

object transformer {
     configuration "T_config_1515B";
     name "T5260589B";
     from "node_L2955005";
     to "node_X2955005B";
     nominal_voltage 7199.558;
     phases BS;
}

object transformer {
     configuration "T_config_2525C";
     name "T5338961C";
     from "node_L3254208";
     to "node_X3254208C";
     nominal_voltage 7199.558;
     phases CS;
}

object transformer {
     configuration "T_config_1515A";
     name "T5337723A";
     from "node_L3178978";
     to "node_X3178978A";
     nominal_voltage 7199.558;
     phases AS;
}

object transformer {
     configuration "T_config_2525A";
     name "T5138573A";
     from "node_L3235253";
     to "node_X3235253A";
     nominal_voltage 7199.558;
     phases AS;
}

object transformer {
     configuration "T_config_2525C";
     name "T5321888C";
     from "node_L3235241";
     to "node_X3235241C";
     nominal_voltage 7199.558;
     phases CS;
}

object transformer {
     configuration "T_config_2525B";
     name "T28148580B";
     from "node_L3197636";
     to "node_X3197636B";
     nominal_voltage 7199.558;
     phases BS;
}

object transformer {
     configuration "T_config_2525B";
     name "T28126875B";
     from "node_L3066811";
     to "node_X3066811B";
     nominal_voltage 7199.558;
     phases BS;
}

object transformer {
     configuration "T_config_1515A";
     name "T2224192013A";
     from "node_L3632979";
     to "node_X3632979A";
     nominal_voltage 7199.558;
     phases AS;
}

object transformer {
     configuration "T_config_1515C";
     name "T5260532C";
     from "node_L3086074";
     to "node_X3086074C";
     nominal_voltage 7199.558;
     phases CS;
}

object transformer {
     configuration "T_config_1515A";
     name "T21389831A";
     from "node_L2674051";
     to "node_X2674051A";
     nominal_voltage 7199.558;
     phases AS;
}

object transformer {
     configuration "T_config_2525B";
     name "T21396331B";
     from "node_L3178981";
     to "node_X3178981B";
     nominal_voltage 7199.558;
     phases BS;
}

object transformer {
     configuration "T_config_3838B";
     name "T227732939B";
     from "node_L3046854";
     to "node_X3046854B";
     nominal_voltage 7199.558;
     phases BS;
}

object transformer {
     configuration "T_config_1515B";
     name "T5321856B";
     from "node_L2860506";
     to "node_X2860506B";
     nominal_voltage 7199.558;
     phases BS;
}

object transformer {
     configuration "T_config_1515C";
     name "T5260625C";
     from "node_L3048966";
     to "node_X3048966C";
     nominal_voltage 7199.558;
     phases CS;
}

object transformer {
     configuration "T_config_2525B";
     name "T5338950B";
     from "node_L2822872";
     to "node_X2822872B";
     nominal_voltage 7199.558;
     phases BS;
}

object transformer {
     configuration "T_config_2525C";
     name "T226194419C";
     from "node_L3214071";
     to "node_X3214071C";
     nominal_voltage 7199.558;
     phases CS;
}

object transformer {
     configuration "T_config_2525B";
     name "T5275247B";
...