models/ieee8500/library/nodes.glm
#ifndef POLE_TYPE
#define POLE_TYPE=node
#endif

#if POLE_TYPE==pole
object multi_recorder {

      file ieee8500_pole_vulnerability.csv;
      property substation_meter:measured_real_power,substation_meter:measured_reactive_power;
      property weather:wind_speed;
      property node_HVMV_Sub_LSB:pole_stress,node_HVMV_Sub_LSB:resisting_moment,node_HVMV_Sub_LSB:total_moment,node_HVMV_Sub_LSB:critical_wind_speed,node_HVMV_Sub_LSB:susceptibility,node_HVMV_Sub_LSB:pole_status,node_HVMV_Sub_LSB:current_uptime;
      property FEEDER_REG:power_out_real;
      property node_HVMV_Sub_48332:pole_stress,node_HVMV_Sub_48332:resisting_moment,node_HVMV_Sub_48332:total_moment,node_HVMV_Sub_48332:critical_wind_speed,node_HVMV_Sub_48332:susceptibility,node_HVMV_Sub_48332:pole_status,node_HVMV_Sub_48332:current_uptime;
      property HVMV_Sub_connector:power_out_real;
     interval 3600;
};
#endif //POLE_TYPE

// Node Objects
object ${POLE_TYPE:-node} {
     phases ABCN;
     name "node_HVMV_Sub_LSB";
     nominal_voltage 7199.558;
#if POLE_TYPE==pole
     configuration pole_default;
     weather weather;
#endif
}

object node {
     phases ABCN;
     name "node_D6413567-3_INT";
     nominal_voltage 7199.558;
}

object node {
     phases ABCN;
     name "node_221-311359";
     nominal_voltage 7199.558;
}

object node {
     phases ABCN;
     name "node_221-308718";
     nominal_voltage 7199.558;
}

object node {
     phases ABCN;
     name "node_P862322";
     nominal_voltage 7199.558;
}

object node {
     phases ABCN;
     name "node_221-242079";
     nominal_voltage 7199.558;
}

object node {
     phases ABCN;
     name "node_M1108398";
     nominal_voltage 7199.558;
}

object node {
     phases ABCN;
     name "node_M1108387";
     nominal_voltage 7199.558;
}

object node {
     phases ABCN;
     name "node_M1089185";
     nominal_voltage 7199.558;
}

object node {
     phases ABCN;
     name "node_P850072";
     nominal_voltage 7199.558;
}

object node {
     phases ABCN;
     name "node_M1089183";
     nominal_voltage 7199.558;
}

object node {
     phases ABCN;
     name "node_M1209774";
     nominal_voltage 7199.558;
}

object node {
     phases ABCN;
     name "node_198-5320";
     nominal_voltage 7199.558;
}

object node {
     phases ABCN;
     name "node_M1108381";
     nominal_voltage 7199.558;
}

object node {
     phases ABCN;
     name "node_M1186052";
     nominal_voltage 7199.558;
}

object node {
     phases ABCN;
     name "node_P850080";
     nominal_voltage 7199.558;
}

object node {
     phases ABCN;
     name "node_221-311905";
     nominal_voltage 7199.558;
}

object node {
     phases ABCN;
     name "node_221-312488";
     nominal_voltage 7199.558;
}

object node {
     phases ABCN;
     name "node_P850083";
     nominal_voltage 7199.558;
}

object node {
     phases ABCN;
     name "node_221-311609";
     nominal_voltage 7199.558;
}

object node {
     phases ABCN;
     name "node_M1009651";
     nominal_voltage 7199.558;
}

object node {
     phases ABCN;
     name "node_L2925506";
     nominal_voltage 7199.558;
}

object node {
     phases ABCN;
     name "node_M1069418";
     nominal_voltage 7199.558;
}

object node {
     phases ABCN;
     name "node_L3104136";
     nominal_voltage 7199.558;
}

object node {
     phases ABCN;
     name "node_M1069504";
     nominal_voltage 7199.558;
}

object node {
     phases ABCN;
     name "node_M1026855";
     nominal_voltage 7199.558;
}

object node {
     phases ABCN;
     name "node_M1069517";
     nominal_voltage 7199.558;
}

object node {
     phases ABCN;
     name "node_M1047497";
     nominal_voltage 7199.558;
}

object node {
     phases ABCN;
     name "node_L2745848";
     nominal_voltage 7199.558;
}

object node {
     phases ABCN;
     name "node_N1136667";
     nominal_voltage 7199.558;
}

object node {
     phases ABCN;
     name "node_L2876798";
     nominal_voltage 7199.558;
}

object node {
     phases ABCN;
     name "node_L3197646";
     nominal_voltage 7199.558;
}

object node {
     phases ABCN;
     name "node_M1047507";
     nominal_voltage 7199.558;
}

object node {
     phases ABCN;
     name "node_M1069500";
     nominal_voltage 7199.558;
}

object node {
     phases ABCN;
     name "node_M1026858";
     nominal_voltage 7199.558;
}

object node {
     phases ABCN;
     name "node_L3181545";
     nominal_voltage 7199.558;
}

object node {
     phases ABCN;
     name "node_L2991939";
     nominal_voltage 7199.558;
}

object node {
     phases ABCN;
     name "node_N1138603";
     nominal_voltage 7199.558;
}

object node {
     phases ABCN;
     name "node_M1047528";
     nominal_voltage 7199.558;
}

object node {
     phases ABCN;
     name "node_M1047574";
     nominal_voltage 7199.558;
}

object node {
     phases ABCN;
     name "node_M1047577";
     nominal_voltage 7199.558;
}

object node {
     phases ABCN;
     name "node_M1047592";
     nominal_voltage 7199.558;
}

object node {
     phases ABCN;
...